data/ligands/Ligand_6lu7.pdb
 OpenBabel10232115393D

 49 51  0  0  1  0  0  0  0  0999 V2000
  -10.4250    3.4200   72.4470 C   0  0  0  0  0  0  0  0  0  0  0  0
   -9.9240    2.8570   73.6420 C   0  0  0  0  0  0  0  0  0  0  0  0
   -9.3450    1.4580   73.8060 C   0  0  0  0  0  0  0  0  0  0  0  0
  -10.0480    3.7550   74.5750 O   0  0  0  0  0  0  0  0  0  0  0  0
  -10.5850    4.8610   74.1140 N   0  0  0  0  0  0  0  0  0  0  0  0
  -10.8480    4.7380   72.8100 C   0  0  0  0  0  0  0  0  0  0  0  0
  -11.4750    5.7980   71.8910 C   0  0  0  0  0  0  0  0  0  0  0  0
  -11.0620    5.9430   70.7930 O   0  0  0  0  0  0  0  0  0  0  0  0
  -12.5830    6.6250   72.3740 N   0  0  0  0  0  0  0  0  0  0  0  0
  -13.1660    7.6250   71.4950 C   0  0  2  0  0  0  0  0  0  0  0  0
  -12.1150    8.7500   71.2410 C   0  0  0  0  0  0  0  0  0  0  0  0
  -11.4660    9.1590   72.1250 O   0  0  0  0  0  0  0  0  0  0  0  0
  -14.3970    8.2180   72.1320 C   0  0  0  0  0  0  0  0  0  0  0  0
  -11.9430    9.2810   69.9110 N   0  0  0  0  0  0  0  0  0  0  0  0
  -10.9550   10.3360   69.6660 C   0  0  2  0  0  0  0  0  0  0  0  0
  -11.6630   11.6060   69.2730 C   0  0  0  0  0  0  0  0  0  0  0  0
  -12.3810   11.6170   68.3280 O   0  0  0  0  0  0  0  0  0  0  0  0
  -10.0040    9.8950   68.5150 C   0  0  0  0  0  0  0  0  0  0  0  0
   -9.1300   11.0860   68.0120 C   0  0  0  0  0  0  0  0  0  0  0  0
   -9.1160    8.6870   68.9550 C   0  0  0  0  0  0  0  0  0  0  0  0
  -11.4800   12.6780   70.0440 N   0  0  0  0  0  0  0  0  0  0  0  0
  -12.1700   13.9630   69.7460 C   0  0  2  0  0  0  0  0  0  0  0  0
  -11.8040   14.4540   68.3410 C   0  0  0  0  0  0  0  0  0  0  0  0
  -10.6060   14.4420   68.0360 O   0  0  0  0  0  0  0  0  0  0  0  0
  -11.7950   14.9950   70.8110 C   0  0  0  0  0  0  0  0  0  0  0  0
  -12.5660   14.8760   72.1220 C   0  0  0  0  0  0  0  0  0  0  0  0
  -12.4700   16.1620   72.9250 C   0  0  0  0  0  0  0  0  0  0  0  0
  -14.0170   14.5140   71.8610 C   0  0  0  0  0  0  0  0  0  0  0  0
  -11.8320   15.4910   65.8780 C   0  0  2  0  0  0  0  0  0  0  0  0
  -12.4220   16.8900   65.6990 C   0  0  0  0  0  0  0  0  0  0  0  0
  -11.6670   17.9480   65.9020 C   0  0  0  0  0  0  0  0  0  0  0  0
  -10.2080   17.8200   66.3470 C   0  0  0  0  0  0  0  0  0  0  0  0
  -12.4370   14.5940   64.8060 C   0  0  0  0  0  0  0  0  0  0  0  0
  -11.8350   13.1990   64.8380 C   0  0  2  0  0  0  0  0  0  0  0  0
  -10.3680   13.2410   64.5720 C   0  0  0  0  0  0  0  0  0  0  0  0
  -10.1100   11.8920   63.8850 C   0  0  0  0  0  0  0  0  0  0  0  0
  -11.3860   11.5310   63.2320 N   0  0  0  0  0  0  0  0  0  0  0  0
  -12.4280   12.3060   63.7870 C   0  0  0  0  0  0  0  0  0  0  0  0
  -13.5590   12.2600   63.4950 O   0  0  0  0  0  0  0  0  0  0  0  0
  -12.2820   14.9940   67.1230 N   0  0  0  0  0  0  0  0  0  0  0  0
   -9.9430   17.7850   67.5720 O   0  0  0  0  0  0  0  0  0  0  0  0
   -7.9010   17.6490   66.6960 C   0  0  0  0  0  0  0  0  0  0  0  0
   -8.9110   17.8490   65.7030 O   0  0  0  0  0  0  0  0  0  0  0  0
   -5.8100   18.9970   67.2590 C   0  0  0  0  0  0  0  0  0  0  0  0
   -5.1380   20.2050   67.4390 C   0  0  0  0  0  0  0  0  0  0  0  0
   -5.8150   21.4140   67.2570 C   0  0  0  0  0  0  0  0  0  0  0  0
   -7.1560   21.4060   66.8980 C   0  0  0  0  0  0  0  0  0  0  0  0
   -7.8310   20.2010   66.7150 C   0  0  0  0  0  0  0  0  0  0  0  0
   -7.1530   18.9940   66.8960 C   0  0  0  0  0  0  0  0  0  0  0  0
  1  2  2  0  0  0  0
  1  6  1  0  0  0  0
  2  3  1  0  0  0  0
  2  4  1  0  0  0  0
  4  5  1  0  0  0  0
  5  6  2  0  0  0  0
  6  7  1  0  0  0  0
  7  8  2  0  0  0  0
  7  9  1  0  0  0  0
 10 13  1  1  0  0  0
 10  9  1  0  0  0  0
 11 10  1  0  0  0  0
 11 12  2  0  0  0  0
 14 11  1  0  0  0  0
 15 18  1  6  0  0  0
 15 14  1  0  0  0  0
 16 15  1  0  0  0  0
 16 21  1  0  0  0  0
 17 16  2  0  0  0  0
 18 20  1  0  0  0  0
 19 18  1  0  0  0  0
 22 21  1  0  0  0  0
 22 25  1  1  0  0  0
 23 40  1  0  0  0  0
 23 22  1  0  0  0  0
 24 23  2  0  0  0  0
 25 26  1  0  0  0  0
 26 27  1  0  0  0  0
 28 26  1  0  0  0  0
 29 30  1  6  0  0  0
 29 33  1  0  0  0  0
 29 40  1  0  0  0  0
 30 31  2  0  0  0  0
 31 32  1  0  0  0  0
 32 41  2  0  0  0  0
 32 43  1  0  0  0  0
 34 33  1  6  0  0  0
 34 35  1  0  0  0  0
 34 38  1  0  0  0  0
 35 36  1  0  0  0  0
 36 37  1  0  0  0  0
 37 38  1  0  0  0  0
 38 39  2  0  0  0  0
 42 43  1  0  0  0  0
 42 49  1  0  0  0  0
 44 45  2  0  0  0  0
 44 49  1  0  0  0  0
 45 46  1  0  0  0  0
 46 47  2  0  0  0  0
 47 48  1  0  0  0  0
 48 49  2  0  0  0  0
M  END
>  <REMARK>
   BIOVIA PDB file
   Created:  2021-08-22T16:57:19Z

$$$$
